test/test_files/validation_tests/case300_res.m
function mpc = case300_res
%CASE300_RES

%% MATPOWER Case Format : Version 2
mpc.version = '2';

%%-----  Power Flow Data  -----%%
%% system MVA base
mpc.baseMVA = 100;

%% bus data
%	bus_i	type	Pd	Qd	Gs	Bs	area	Vm	Va	baseKV	zone	Vmax	Vmin
mpc.bus = [
	1	1	90	49	0	0	1	1.02842015	5.96736574	115	1	1.06	0.94;
	2	1	56	15	0	0	1	1.03534039	7.7549745	115	1	1.06	0.94;
	3	1	20	0	0	0	1	0.997098674	6.65708109	230	1	1.06	0.94;
	4	1	0	0	0	0	1	1.0308118	4.72827003	345	1	1.06	0.94;
	5	1	353	130	0	0	1	1.0191091	4.70140239	115	1	1.06	0.94;
	6	1	120	41	0	0	1	1.03119612	7.00606218	115	1	1.06	0.94;
	7	1	0	0	0	0	1	0.993407714	6.20564604	230	1	1.06	0.94;
	8	2	63	14	0	0	1	1.0153	2.41527525	115	1	1.06	0.94;
	9	1	96	43	0	0	1	1.00338574	2.87085821	115	1	1.06	0.94;
	10	2	153	33	0	0	1	1.0205	1.36318128	230	1	1.06	0.94;
	11	1	83	21	0	0	1	1.00565721	2.48124373	115	1	1.06	0.94;
	12	1	0	0	0	0	1	0.997373202	5.23026693	230	1	1.06	0.94;
	13	1	58	10	0	0	1	0.997674375	-0.537103563	115	1	1.06	0.94;
	14	1	160	60	0	0	1	0.999169906	-4.79583792	115	1	1.06	0.94;
	15	1	126.7	23	0	0	1	1.03439126	-8.56699263	115	1	1.06	0.94;
	16	1	0	0	0	0	1	1.03158695	-2.62231908	345	1	1.06	0.94;
	17	1	561	220	0	0	1	1.06490618	-13.0847496	115	1	1.06	0.94;
	19	1	0	0	0	0	1	0.981923559	1.08870434	230	1	1.06	0.94;
	20	2	605	120	0	0	1	1.001	-2.4469348	115	1	1.06	0.94;
	21	1	77	1	0	0	1	0.975167954	1.63397476	230	1	1.06	0.94;
	22	1	81	23	0	0	1	0.996270178	-1.95994324	115	1	1.06	0.94;
	23	1	21	7	0	0	1	1.05009765	3.95145261	115	1	1.06	0.94;
	24	1	0	0	0	0	1	1.00565562	6.03302576	230	1	1.06	0.94;
	25	1	45	12	0	0	1	1.02335353	1.45276449	115	1	1.06	0.94;
	26	1	28	9	0	0	1	0.998577095	-1.72104002	115	1	1.06	0.94;
	27	1	69	13	0	0	1	0.975035262	-4.88256577	115	1	1.06	0.94;
	33	1	55	6	0	0	1	1.0245648	-12.0018741	115	1	1.06	0.94;
	34	1	0	0	0	0	1	1.04144101	-7.90090059	345	1	1.06	0.94;
	35	1	0	0	0	0	1	0.975687595	-25.6817335	115	1	1.06	0.94;
	36	1	0	0	0	0	1	1.00116986	-22.5188124	230	1	1.06	0.94;
	37	1	85	32	0	0	1	1.0201582	-11.21446	115	1	1.06	0.94;
	38	1	155	18	0	0	1	1.02031162	-12.5385775	115	1	1.06	0.94;
	39	1	0	0	0	0	1	1.05361061	-5.77304793	345	1	1.06	0.94;
	40	1	46	-21	0	0	1	1.02165472	-12.7608744	115	1	1.06	0.94;
	41	1	86	0	0	0	1	1.02928287	-10.4254025	115	1	1.06	0.94;
	42	1	0	0	0	0	1	1.04494412	-7.40650007	345	1	1.06	0.94;
	43	1	39	9	0	0	1	1.0007318	-16.7633605	115	1	1.06	0.94;
	44	1	195	29	0	0	1	1.00873503	-17.4310106	115	1	1.06	0.94;
	45	1	0	0	0	0	1	1.02164615	-14.6903429	230	1	1.06	0.94;
	46	1	0	0	0	0	1	1.03451483	-11.697007	345	1	1.06	0.94;
	47	1	58	11.8	0	0	1	0.977877377	-23.1630027	115	1	1.06	0.94;
	48	1	41	19	0	0	1	1.00195845	-16.1207191	115	1	1.06	0.94;
	49	1	92	26	0	0	1	1.04749941	-2.94453588	115	1	1.06	0.94;
	51	1	-5	5	0	0	1	1.02538774	-8.13465055	115	1	1.06	0.94;
	52	1	61	28	0	0	1	0.998003135	-11.8395	115	1	1.06	0.94;
	53	1	69	3	0	0	1	0.9960348	-17.5787614	115	1	1.06	0.94;
	54	1	10	1	0	0	1	1.00513492	-16.2223455	115	1	1.06	0.94;
	55	1	22	10	0	0	1	1.0151464	-12.1874588	115	1	1.06	0.94;
	57	1	98	20	0	0	1	1.03349014	-7.9659047	115	1	1.06	0.94;
	58	1	14	1	0	0	1	0.991822146	-5.9588855	115	1	1.06	0.94;
	59	1	218	106	0	0	1	0.978860103	-5.2524479	115	1	1.06	0.94;
	60	1	0	0	0	0	1	1.02471633	-9.51479968	230	1	1.06	0.94;
	61	1	227	110	0	0	1	0.990653649	-3.43318258	115	1	1.06	0.94;
	62	1	0	0	0	0	1	1.01603973	-1.06155602	230	1	1.06	0.94;
	63	2	70	30	0	0	1	0.9583	-17.5886179	115	1	1.06	0.94;
	64	1	0	0	0	0	1	0.94795568	-12.9355115	230	1	1.06	0.94;
	69	1	0	0	0	0	1	0.962697923	-26.4716652	115	1	1.06	0.94;
	70	1	56	20	0	0	1	0.951318457	-35.1237581	115	1	1.06	0.94;
	71	1	116	38	0	0	1	0.979390702	-29.8445659	115	1	1.06	0.94;
	72	1	57	19	0	0	1	0.969614244	-27.4412424	115	1	1.06	0.94;
	73	1	224	71	0	0	1	0.977610477	-25.7372863	115	1	1.06	0.94;
	74	1	0	0	0	0	1	0.996488299	-21.9430147	230	1	1.06	0.94;
	76	2	208	107	0	0	1	0.9632	-26.5029725	115	1	1.06	0.94;
	77	1	74	28	0	0	1	0.983787299	-24.9110077	115	1	1.06	0.94;
	78	1	0	0	0	0	1	0.990023387	-24.0346027	115	1	1.06	0.94;
	79	1	48	14	0	0	1	0.982012341	-25.0112784	115	1	1.06	0.94;
	80	1	28	7	0	0	1	0.987242422	-24.8171843	115	1	1.06	0.94;
	81	1	0	0	0	0	1	1.03412687	-18.7566941	345	1	1.06	0.94;
	84	2	37	13	0	0	1	1.025	-17.1477822	115	1	1.06	0.94;
	85	1	0	0	0	0	1	0.987112105	-17.7650624	230	1	1.06	0.94;
	86	1	0	0	0	0	1	0.99081794	-14.2479404	230	1	1.06	0.94;
	87	1	0	0	0	0	1	0.991953641	-7.79272937	230	1	1.06	0.94;
	88	1	0	0	0	0	1	1.01524801	-20.8668046	230	1	1.06	0.94;
	89	1	44.2	0	0	0	1	1.03172441	-11.1429144	115	1	1.06	0.94;
	90	1	66	0	0	0	1	1.02723076	-11.2348912	115	1	1.06	0.94;
	91	2	17.4	0	0	0	1	1.052	-9.4369864	115	1	1.06	0.94;
	92	2	15.8	0	0	0	1	1.052	-6.24389715	115	1	1.06	0.94;
	94	1	60.3	0	0	0	1	0.992945005	-9.44931558	115	1	1.06	0.94;
	97	1	39.9	0	0	0	1	1.01822439	-13.2870836	115	1	1.06	0.94;
	98	2	66.7	0	0	0	1	1	-14.6648617	115	1	1.06	0.94;
	99	1	83.5	0	0	0	1	0.989358457	-20.3752569	115	1	1.06	0.94;
	100	1	0	0	0	0	1	1.00598596	-14.5033283	115	1	1.06	0.94;
	102	1	77.8	0	0	0	1	1.00070765	-15.2925752	115	1	1.06	0.94;
	103	1	32	0	0	0	1	1.0287588	-12.118075	115	1	1.06	0.94;
	104	1	8.6	0	0	0	1	0.995736736	-17.4016288	115	1	1.06	0.94;
	105	1	49.6	0	0	0	1	1.02226693	-13.0017109	115	1	1.06	0.94;
	107	1	4.6	0	0	0	1	1.00946117	-16.0817834	115	1	1.06	0.94;
	108	2	112.1	0	0	0	1	0.99	-20.363463	115	1	1.06	0.94;
	109	1	30.7	0	0	0	1	0.975244728	-26.2916204	115	1	1.06	0.94;
	110	1	63	0	0	0	1	0.973212905	-24.9315806	115	1	1.06	0.94;
	112	1	19.6	0	0	0	1	0.974472916	-29.2739119	115	1	1.06	0.94;
	113	1	26.2	0	0	0	1	0.970155245	-25.4471109	115	1	1.06	0.94;
	114	1	18.2	0	0	0	1	0.976812033	-29.2091983	115	1	1.06	0.94;
	115	1	0	0	0	0	1	0.960282046	-13.548487	115	2	1.06	0.94;
	116	1	0	0	0	0	1	1.02486076	-12.666916	115	2	1.06	0.94;
	117	1	0	0	0	325	1	0.934828969	-4.69918419	115	2	1.06	0.94;
	118	1	14.1	650	0	0	1	0.929853059	-4.10157331	115	2	1.06	0.94;
	119	2	0	0	0	0	1	1.0435	5.18733838	115	2	1.06	0.94;
	120	1	777	215	0	55	1	0.958437324	-8.74920988	115	2	1.06	0.94;
	121	1	535	55	0	0	1	0.987111098	-12.614836	115	2	1.06	0.94;
	122	1	229.1	11.8	0	0	1	0.972796082	-14.3430693	115	2	1.06	0.94;
	123	1	78	1.4	0	0	1	1.00058793	-17.613437	115	2	1.06	0.94;
	124	2	276.4	59.3	0	0	1	1.0233	-13.4644599	115	2	1.06	0.94;
	125	2	514.8	82.7	0	0	1	1.0103	-18.4065071	115	2	1.06	0.94;
	126	1	57.9	5.1	0	0	1	0.997795453	-12.8426799	115	2	1.06	0.94;
	127	1	380.8	37	0	0	1	1.00012891	-10.5018036	230	2	1.06	0.94;
	128	1	0	0	0	0	1	1.00240611	-4.75589409	230	2	1.06	0.94;
	129	1	0	0	0	0	1	1.00282473	-4.37713752	230	2	1.06	0.94;
	130	1	0	0	0	0	1	1.01913583	5.57782548	230	2	1.06	0.94;
	131	1	0	0	0	0	1	0.986142347	6.07365107	230	2	1.06	0.94;
	132	1	0	0	0	0	1	1.00455115	3.06381636	230	2	1.06	0.94;
	133	1	0	0	0	0	1	1.00199833	-5.43899169	230	2	1.06	0.94;
	134	1	0	0	0	0	1	1.02207569	-8.02223598	230	2	1.06	0.94;
	135	1	169.2	41.6	0	0	1	1.01933725	-6.73394912	230	2	1.06	0.94;
	136	1	55.2	18.2	0	0	1	1.04758617	1.56301009	230	2	1.06	0.94;
	137	1	273.6	99.8	0	0	1	1.04708812	-1.43150739	230	2	1.06	0.94;
	138	2	1019.2	135.2	0	0	1	1.055	-6.33076932	230	2	1.06	0.94;
	139	1	595	83.3	0	0	1	1.01170852	-3.54473356	115	2	1.06	0.94;
	140	1	387.7	114.7	0	0	1	1.04299144	-3.41207716	230	2	1.06	0.94;
	141	2	145	58	0	0	1	1.051	0.0736474264	230	2	1.06	0.94;
	142	1	56.5	24.5	0	0	1	1.01550963	-2.74185275	230	2	1.06	0.94;
	143	2	89.5	35.5	0	0	1	1.0435	4.06183608	230	2	1.06	0.94;
	144	1	0	0	0	0	1	1.01610662	-0.660898527	230	2	1.06	0.94;
	145	1	24	14	0	0	1	1.00810603	-0.129941641	230	2	1.06	0.94;
	146	2	0	0	0	0	1	1.0528	4.34695237	230	2	1.06	0.94;
	147	2	0	0	0	0	1	1.0528	8.38900667	230	2	1.06	0.94;
	148	1	63	25	0	0	1	1.05771858	0.306248595	230	2	1.06	0.94;
	149	2	0	0	0	0	1	1.0735	5.25743035	230	2	1.06	0.94;
	150	1	0	0	0	0	1	0.986926461	6.3552045	230	2	1.06	0.94;
	151	1	0	0	0	0	1	1.00483265	4.15036106	230	2	1.06	0.94;
	152	2	17	9	0	0	1	1.0535	9.26393226	230	2	1.06	0.94;
	153	2	0	0	0	0	1	1.0435	10.4836482	230	2	1.06	0.94;
	154	1	70	5	0	34.5	1	0.966416833	-1.77572715	115	2	1.06	0.94;
	155	1	200	50	0	0	1	1.01772432	6.77435779	230	2	1.06	0.94;
	156	2	75	50	0	0	1	0.963	5.16879619	115	2	1.06	0.94;
	157	1	123.5	-24.3	0	0	1	0.984472529	-11.905024	230	2	1.06	0.94;
	158	1	0	0	0	0	1	0.998708597	-11.3807056	230	2	1.06	0.94;
	159	1	33	16.5	0	0	1	0.986644138	-9.79831428	230	2	1.06	0.94;
	160	1	0	0	0	0	1	0.999801002	-12.5301747	230	2	1.06	0.94;
	161	1	35	15	0	0	1	1.03608206	8.86704441	230	2	1.06	0.94;
	162	1	85	24	0	0	1	0.991820234	18.5239014	230	2	1.06	0.94;
	163	1	0	0.4	0	0	1	1.04101055	2.92925257	230	2	1.06	0.94;
	164	1	0	0	0	-212	1	0.983913921	9.68446246	230	2	1.06	0.94;
	165	1	0	0	0	0	1	1.0002115	26.3319726	230	2	1.06	0.94;
	166	1	0	0	0	-103	1	0.997254427	30.2437325	230	2	1.06	0.94;
	167	1	299.9	95.7	0	0	1	0.971492182	-6.88525849	230	2	1.06	0.94;
	168	1	0	0	0	0	1	1.0024311	-4.77892257	230	2	1.06	0.94;
	169	1	0	0	0	0	1	0.987864475	-6.6565185	230	2	1.06	0.94;
	170	2	481.8	205	0	0	1	0.929	0.107696722	115	2	1.06	0.94;
	171	2	763.6	291.1	0	0	1	0.9829	-9.91390028	115	2	1.06	0.94;
	172	1	26.5	0	0	0	1	1.02446611	-6.19958187	115	2	1.06	0.94;
	173	1	163.5	43	0	53	1	0.983654255	-12.7287834	115	2	1.06	0.94;
	174	1	0	0	0	0	1	1.06221362	-2.6666747	115	2	1.06	0.94;
	175	1	176	83	0	0	1	0.973080894	-7.18031412	115	2	1.06	0.94;
	176	2	5	4	0	0	1	1.0522	4.69124598	115	2	1.06	0.94;
	177	2	28	12	0	0	1	1.0077	0.645671077	115	2	1.06	0.94;
	178	1	427.4	173.6	0	0	1	0.93979559	-6.53683379	115	2	1.06	0.94;
	179	1	74	29	0	45	1	0.969910277	-9.33760144	115	2	1.06	0.94;
	180	1	69.5	49.3	0	0	1	0.979330186	-3.06506781	115	2	1.06	0.94;
	181	1	73.4	0	0	0	1	1.05182361	-1.30323336	230	2	1.06	0.94;
	182	1	240.7	89	0	0	1	1.04462767	-4.16512621	230	2	1.06	0.94;
	183	1	40	4	0	0	1	0.971644873	7.14506048	115	2	1.06	0.94;
	184	1	136.8	16.6	0	0	1	1.03858929	-6.82449773	230	2	1.06	0.94;
	185	2	0	0	0	0	1	1.0522	-4.3101142	230	2	1.06	0.94;
	186	2	59.8	24.3	0	0	1	1.065	2.19433228	230	2	1.06	0.94;
	187	2	59.8	24.3	0	0	1	1.065	1.41898758	230	2	1.06	0.94;
	188	1	182.6	43.6	0	0	1	1.0532818	-0.701184856	230	2	1.06	0.94;
	189	1	7	2	0	0	1	1.00275744	-26.013343	66	3	1.06	0.94;
	190	2	0	0	0	-150	1	1.0551	-20.4166352	345	3	1.06	0.94;
	191	2	489	53	0	0	1	1.0435	12.4516603	230	3	1.06	0.94;
	192	1	800	72	0	0	1	0.937458227	-10.9775664	230	3	1.06	0.94;
	193	1	0	0	0	0	1	0.998235718	-27.4703395	66	3	1.06	0.94;
	194	1	0	0	0	0	1	1.04898415	-19.0448444	345	3	1.06	0.94;
	195	1	0	0	0	0	1	1.03590307	-20.5808399	345	3	1.06	0.94;
	196	1	10	3	0	0	1	0.973993322	-24.2286316	115	3	1.06	0.94;
	197	1	43	14	0	0	1	0.992473322	-23.0617145	115	3	1.06	0.94;
	198	2	64	21	0	0	1	1.015	-20.0943342	115	3	1.06	0.94;
	199	1	35	12	0	0	1	0.954313094	-25.446223	115	3	1.06	0.94;
	200	1	27	12	0	0	1	0.956173522	-25.3670613	115	3	1.06	0.94;
	201	1	41	14	0	0	1	0.974031726	-29.2331195	66	1	1.06	0.94;
	202	1	38	13	0	0	1	0.990838643	-24.9694075	66	3	1.06	0.94;
	203	1	42	14	0	0	1	1.00335924	-21.9255337	115	3	1.06	0.94;
	204	1	72	24	0	0	1	0.96670946	-29.5486707	66	3	1.06	0.94;
	205	1	0	-5	0	0	1	0.985553688	-28.5157734	66	3	1.06	0.94;
	206	1	12	2	0	0	1	1.00376814	-28.4732225	66	3	1.06	0.94;
	207	1	-21	-14.2	0	0	1	1.01855537	-28.2950786	66	1	1.06	0.94;
	208	1	7	2	0	0	1	0.9994401	-26.9980162	66	3	1.06	0.94;
	209	1	38	13	0	0	1	1.00477433	-25.6141489	66	3	1.06	0.94;
	210	1	0	0	0	0	1	0.980462408	-23.6028429	115	3	1.06	0.94;
	211	1	96	7	0	0	1	1.00182048	-22.9714934	115	3	1.06	0.94;
	212	1	0	0	0	0	1	1.01326191	-22.2030414	138	3	1.06	0.94;
	213	2	0	0	0	0	1	1.01	-11.3792289	16.5	3	1.06	0.94;
	214	1	22	16	0	0	1	0.991862746	-17.2379632	138	3	1.06	0.94;
	215	1	47	26	0	0	1	0.986631743	-19.9509843	138	3	1.06	0.94;
	216	1	176	105	0	0	1	0.975109765	-22.2713805	138	3	1.06	0.94;
	217	1	100	75	0	0	1	1.02152467	-21.9867633	138	3	1.06	0.94;
	218	1	131	96	0	0	1	1.00754666	-22.4217588	138	3	1.06	0.94;
	219	1	0	0	0	0	1	1.0554202	-20.9473806	345	3	1.06	0.94;
	220	2	285	100	0	0	1	1.008	-21.5197948	138	3	1.06	0.94;
	221	2	171	70	0	0	1	1	-22.2851415	138	3	1.06	0.94;
	222	2	328	188	0	0	1	1.05	-22.9638791	20	3	1.06	0.94;
	223	1	428	232	0	0	1	0.9965511	-22.4955333	138	3	1.06	0.94;
	224	1	173	99	0	0	1	1.0002539	-21.3497469	230	3	1.06	0.94;
	225	1	410	40	0	0	1	0.945275772	-11.1415511	230	3	1.06	0.94;
	226	1	0	0	0	0	1	1.01800537	-21.4054855	230	3	1.06	0.94;
	227	2	538	369	0	0	1	1	-27.0161441	27	3	1.06	0.94;
	228	1	223	148	0	0	1	1.0423565	-20.7369346	138	3	1.06	0.94;
	229	1	96	46	0	0	1	1.04955189	-19.7413532	138	3	1.06	0.94;
	230	2	0	0	0	0	1	1.04	-13.6199129	20	3	1.06	0.94;
	231	1	159	107	0	-300	1	1.05354076	-21.0202823	345	3	1.06	0.94;
	232	1	448	143	0	0	1	1.04146647	-22.9942518	138	3	1.06	0.94;
	233	2	404	212	0	0	1	1	-25.695865	66	3	1.06	0.94;
	234	1	572	244	0	0	1	1.03870579	-20.690596	138	3	1.06	0.94;
	235	1	269	157	0	0	1	1.00951466	-20.8231241	138	3	1.06	0.94;
	236	2	0	0	0	0	1	1.0165	-15.1951995	20	3	1.06	0.94;
	237	1	0	0	0	0	1	1.05585003	-20.8975303	345	3	1.06	0.94;
	238	2	255	149	0	-150	1	1.01	-20.7353421	138	3	1.06	0.94;
	239	2	0	0	0	0	1	1	-15.6565287	138	3	1.06	0.94;
	240	1	0	0	0	-140	1	1.02377627	-19.9338929	230	3	1.06	0.94;
	241	2	0	0	0	0	1	1.05	-16.3036746	20	3	1.06	0.94;
	242	2	0	0	0	0	1	0.993	-17.2263146	138	3	1.06	0.94;
	243	2	8	3	0	0	1	1.01	-18.9492468	66	3	1.06	0.94;
	244	1	0	0	0	0	1	0.992177878	-19.8878565	66	3	1.06	0.94;
	245	1	61	30	0	0	1	0.971139519	-20.5772534	66	3	1.06	0.94;
	246	1	77	33	0	0	1	0.965190607	-21.4161269	66	3	1.06	0.94;
	247	1	61	30	0	0	1	0.969095317	-21.3304148	66	3	1.06	0.94;
	248	1	29	14	0	45.6	1	0.976999432	-24.8097808	66	3	1.06	0.94;
	249	1	29	14	0	0	1	0.976226831	-25.2333464	66	3	1.06	0.94;
	250	1	-23	-17	0	0	1	1.02053238	-23.3789504	66	3	1.06	0.94;
	281	1	-33.1	-29.4	0	0	1	1.02512536	-19.8610826	230	3	1.06	0.94;
	319	1	115.8	-24	0	0	1	1.01520908	1.48773593	230	1	1.06	0.94;
	320	1	2.4	-12.6	0	0	1	1.01458959	-2.22141289	115	1	1.06	0.94;
	322	1	2.4	-3.9	0	0	1	1.00043285	-17.6904928	115	1	1.06	0.94;
	323	1	-14.9	26.5	0	0	1	0.980889657	-13.7482189	230	1	1.06	0.94;
	324	1	24.7	-1.2	0	0	1	0.974944922	-23.5218299	115	1	1.06	0.94;
	526	1	145.3	-34.9	0	0	1	0.942872891	-34.2770129	115	1	1.06	0.94;
	528	1	28.1	-20.5	0	0	1	0.972386548	-37.5425486	115	1	1.06	0.94;
	531	1	14	2.5	0	0	1	0.960470075	-29.0644448	115	1	1.06	0.94;
	552	1	-11.1	-1.4	0	0	1	1.00092068	-23.3303548	115	1	1.06	0.94;
	562	1	50.5	17.4	0	0	1	0.977728007	-27.9441715	230	1	1.06	0.94;
	609	1	29.6	0.6	0	0	1	0.958325466	-28.7595962	115	1	1.06	0.94;
	664	1	-113.7	76.7	0	0	1	1.03102834	-16.8327877	345	3	1.06	0.94;
	1190	1	100.31	29.17	0	0	1	1.0128756	3.92483174	86	2	1.06	0.94;
	1200	1	-100	34.17	0	0	1	1.02443808	-7.50305963	86	2	1.06	0.94;
	1201	1	0	0	0	0	1	1.01219654	-15.1563935	115	2	1.06	0.94;
	2040	1	0	0	0	0	1	0.969484874	-24.7009535	115	3	1.06	0.94;
	7001	2	0	0	0	0	1	1.0507	10.809195	13.8	1	1.06	0.94;
	7002	2	0	0	0	0	1	1.0507	12.5019273	13.8	1	1.06	0.94;
	7003	2	0	0	0	0	1	1.0323	13.7744925	13.8	1	1.06	0.94;
	7011	2	0	0	0	0	1	1.0145	5.00912492	13.8	1	1.06	0.94;
	7012	2	0	0	0	0	1	1.0507	11.5890739	13.8	1	1.06	0.94;
	7017	2	0	0	0	0	1	1.0507	-10.450931	13.8	1	1.06	0.94;
	7023	2	0	0	0	0	1	1.0507	6.16160127	13.8	1	1.06	0.94;
	7024	2	0	0	0	0	1	1.029	12.6079881	13.8	1	1.06	0.94;
	7039	2	0	0	0	0	1	1.05	2.14619768	20	1	1.06	0.94;
	7044	2	0	0	0	0	1	1.0145	-13.8809007	13.8	1	1.06	0.94;
	7049	3	0	0	0	0	1	1.0507	0	13.8	1	1.06	0.94;
	7055	2	0	0	0	0	1	0.9967	-7.47558456	13.8	1	1.06	0.94;
	7057	2	0	0	0	0	1	1.0212	-3.41098449	13.8	1	1.06	0.94;
	7061	2	0	0	0	0	1	1.0145	2.00228993	13.8	1	1.06	0.94;
	7062	2	0	0	0	0	1	1.0017	5.8305443	13.8	1	1.06	0.94;
	7071	2	0	0	0	0	1	0.9893	-25.3152638	13.8	1	1.06	0.94;
	7130	2	0	0	0	0	1	1.0507	19.0437823	13.8	2	1.06	0.94;
	7139	2	0	0	0	0	1	1.0507	2.76894238	13.8	2	1.06	0.94;
	7166	2	0	0	0	0	1	1.0145	35.0723708	13.8	2	1.06	0.94;
	9001	1	0	0	0	0	1	1.01177411	-11.2346676	115	9	1.06	0.94;
	9002	2	4.2	0	0	0	1	0.9945	-18.8437342	6.6	9	1.06	0.94;
	9003	1	2.71	0.94	0.14	2.4	1	0.983335363	-19.6731021	6.6	9	1.06	0.94;
	9004	1	0.86	0.28	0	0	1	0.976825458	-19.8102756	6.6	9	1.06	0.94;
	9005	1	0	0	0	0	1	1.01171089	-11.308078	115	9	1.06	0.94;
	9006	1	0	0	0	0	1	1.00292395	-17.4121903	6.6	9	1.06	0.94;
	9007	1	0	0	0	0	1	0.991386582	-18.6732206	6.6	9	1.06	0.94;
	9012	1	0	0	0	0	1	1.00228014	-17.2529213	6.6	9	1.06	0.94;
	9021	1	4.75	1.56	0	0	1	0.988721543	-19.0643842	6.6	9	1.06	0.94;
	9022	1	1.53	0.53	0.08	0	1	0.964884438	-21.6368284	0.6	9	1.06	0.94;
	9023	1	0	0	0	0	1	0.974703556	-19.3735497	6.6	9	1.06	0.94;
	9024	1	1.35	0.47	0.07	0	1	0.970503942	-21.4097345	0.6	9	1.06	0.94;
	9025	1	0.45	0.16	0.02	0	1	0.964756195	-20.43472	0.6	9	1.06	0.94;
	9026	1	0.45	0.16	0.02	0	1	0.965606087	-20.3454589	0.6	9	1.06	0.94;
	9031	1	1.84	0.64	0.1	0	1	0.931741731	-25.016104	0.6	9	1.06	0.94;
	9032	1	1.39	0.48	0.07	0	1	0.944074473	-23.827209	0.6	9	1.06	0.94;
	9033	1	1.89	0.65	0.1	0	1	0.928799262	-25.3313721	0.6	9	1.06	0.94;
	9034	1	1.55	0.54	0.08	1.72	1	0.997240121	-21.0867833	0.6	9	1.06	0.94;
	9035	1	1.66	0.58	0.09	0	1	0.950422289	-23.1721856	0.6	9	1.06	0.94;
	9036	1	3.03	1	0	0	1	0.959699137	-22.6582987	2.3	9	1.06	0.94;
	9037	1	1.86	0.64	0.1	0	1	0.957027004	-22.5794419	0.6	9	1.06	0.94;
	9038	1	2.58	0.89	0.14	0	1	0.939159717	-24.4110328	0.6	9	1.06	0.94;
	9041	1	1.01	0.35	0.05	0	1	0.963554602	-21.3118492	0.6	9	1.06	0.94;
	9042	1	0.81	0.28	0.04	0	1	0.950266809	-22.4763921	0.6	9	1.06	0.94;
	9043	1	1.6	0.52	0	0	1	0.964683365	-21.414183	2.3	9	1.06	0.94;
	9044	1	0	0	0	0	1	0.979007418	-19.7701766	6.6	9	1.06	0.94;
	9051	2	35.81	0	0	0	1	1	-19.3814153	13.8	9	1.06	0.94;
	9052	1	30	23	0	0	1	0.978626533	-17.232942	13.8	9	1.06	0.94;
	9053	2	26.48	0	0	0	1	1	-17.6684419	13.8	9	1.06	0.94;
	9054	2	0	0	0	0	1	1	-6.8121637	13.8	9	1.06	0.94;
	9055	2	0	0	0	0	1	1	-7.52317685	13.8	9	1.06	0.94;
	9071	1	1.02	0.35	0.05	0	1	0.97543119	-20.4586048	0.6	9	1.06	0.94;
	9072	1	1.02	0.35	0.05	0	1	0.980460243	-19.9048243	0.6	9	1.06	0.94;
	9121	1	3.8	1.25	0	0	1	0.979887689	-19.2770953	6.6	9	1.06	0.94;
	9533	1	1.19	0.41	0.1	0	1	1.04051734	-18.1822561	2.3	9	1.06	0.94;
];

%% generator data
%	bus	Pg	Qg	Qmax	Qmin	Vg	mBase	status	Pmax	Pmin	Pc1	Pc2	Qc1min	Qc1max	Qc2min	Qc2max	ramp_agc	ramp_10	ramp_30	ramp_q	apf
mpc.gen = [
	8	0	9.84765532	10	-10	1.0153	100	1	100	0	0	0	0	0	0	0	0	0	0	0	0;
	10	0	20.0086566	20	-20	1.0205	100	1	100	0	0	0	0	0	0	0	0	0	0	0	0;
	20	0	20.3004056	20	-20	1.001	100	1	100	0	0	0	0	0	0	0	0	0	0	0	0;
	63	0	24.9702381	25	-25	0.9583	100	1	100	0	0	0	0	0	0	0	0	0	0	0	0;
	76	0	34.2649306	35	12	0.9632	100	1	100	0	0	0	0	0	0	0	0	0	0	0	0;
	84	375	132.924091	240	-240	1.025	100	1	475	0	0	0	0	0	0	0	0	0	0	0	0;
	91	155	44.028759	96	-11	1.052	100	1	255	0	0	0	0	0	0	0	0	0	0	0	0;
	92	290	30.9624249	153	-153	1.052	100	1	390	0	0	0	0	0	0	0	0	0	0	0	0;
	98	68	-10.6931897	56	-30	1	100	1	168	0	0	0	0	0	0	0	0	0	0	0	0;
	108	117	20.6412947	77	-24	0.99	100	1	217	0	0	0	0	0	0	0	0	0	0	0	0;
	119	1930	1050.70103	1500	-500	1.0435	100	1	2030	0	0	0	0	0	0	0	0	0	0	0	0;
	124	240	119.945807	120	-60	1.0233	100	1	340	0	0	0	0	0	0	0	0	0	0	0	0;
	125	0	199.835577	200	-25	1.0103	100	1	100	0	0	0	0	0	0	0	0	0	0	0	0;
	138	0	228.612653	350	-125	1.055	100	1	100	0	0	0	0	0	0	0	0	0	0	0	0;
	141	281	65.0988225	75	-50	1.051	100	1	381	0	0	0	0	0	0	0	0	0	0	0	0;
	143	696	123.779519	300	-100	1.0435	100	1	796	0	0	0	0	0	0	0	0	0	0	0	0;
	146	84	34.9978006	35	-15	1.0528	100	1	184	0	0	0	0	0	0	0	0	0	0	0	0;
	147	217	-49.9638578	100	-50	1.0528	100	1	317	0	0	0	0	0	0	0	0	0	0	0	0;
	149	103	49.9696687	50	-25	1.0735	100	1	203	0	0	0	0	0	0	0	0	0	0	0	0;
	152	372	-49.9279071	175	-50	1.0535	100	1	472	0	0	0	0	0	0	0	0	0	0	0	0;
	153	216	-23.8387854	90	-50	1.0435	100	1	316	0	0	0	0	0	0	0	0	0	0	0	0;
	156	0	15.0259498	15	-10	0.963	100	1	100	0	0	0	0	0	0	0	0	0	0	0	0;
	170	205	90.2062953	90	-40	0.929	100	1	305	0	0	0	0	0	0	0	0	0	0	0	0;
	171	0	150.087228	150	-50	0.9829	100	1	100	0	0	0	0	0	0	0	0	0	0	0	0;
	176	228	39.7183766	90	-45	1.0522	100	1	328	0	0	0	0	0	0	0	0	0	0	0	0;
	177	84	34.9896356	35	-15	1.0077	100	1	184	0	0	0	0	0	0	0	0	0	0	0	0;
	185	200	33.2615504	80	-50	1.0522	100	1	300	0	0	0	0	0	0	0	0	0	0	0	0;
	186	1200	237.265437	400	-100	1.065	100	1	1300	0	0	0	0	0	0	0	0	0	0	0	0;
	187	1200	278.321739	400	-100	1.065	100	1	1300	0	0	0	0	0	0	0	0	0	0	0	0;
	190	475	-66.9110039	300	-300	1.0551	100	1	575	0	0	0	0	0	0	0	0	0	0	0	0;
	191	1973	692.066762	1000	-1000	1.0435	100	1	2073	0	0	0	0	0	0	0	0	0	0	0	0;
	198	424	93.4228581	260	-260	1.015	100	1	524	0	0	0	0	0	0	0	0	0	0	0	0;
	213	272	44.0824703	150	-150	1.01	100	1	372	0	0	0	0	0	0	0	0	0	0	0	0;
	220	100	35.720852	60	-60	1.008	100	1	200	0	0	0	0	0	0	0	0	0	0	0	0;
	221	450	160.314443	320	-320	1	100	1	550	0	0	0	0	0	0	0	0	0	0	0	0;
	222	250	161.385346	300	-300	1.05	100	1	350	0	0	0	0	0	0	0	0	0	0	0	0;
	227	303	262.957839	300	-300	1	100	1	403	0	0	0	0	0	0	0	0	0	0	0	0;
	230	345	42.531415	250	-250	1.04	100	1	445	0	0	0	0	0	0	0	0	0	0	0	0;
	233	300	132.534173	500	-500	1	100	1	400	0	0	0	0	0	0	0	0	0	0	0	0;
	236	600	300.231551	300	-300	1.0165	100	1	700	0	0	0	0	0	0	0	0	0	0	0	0;
	238	250	164.077496	200	-200	1.01	100	1	350	0	0	0	0	0	0	0	0	0	0	0	0;
	239	550	68.3847608	400	-400	1	100	1	650	0	0	0	0	0	0	0	0	0	0	0	0;
	241	575.43	-35.4424569	600	-600	1.05	100	1	675.43	0	0	0	0	0	0	0	0	0	0	0	0;
	242	170	51.7618565	100	40	0.993	100	1	270	0	0	0	0	0	0	0	0	0	0	0	0;
	243	84	52.2004191	80	40	1.01	100	1	184	0	0	0	0	0	0	0	0	0	0	0	0;
	7001	467	139.607886	210	-210	1.0507	100	1	567	0	0	0	0	0	0	0	0	0	0	0	0;
	7002	623	93.4226956	280	-280	1.0507	100	1	723	0	0	0	0	0	0	0	0	0	0	0	0;
	7003	1210	420.017188	420	-420	1.0323	100	1	1310	0	0	0	0	0	0	0	0	0	0	0	0;
	7011	234	51.8139888	100	-100	1.0145	100	1	334	0	0	0	0	0	0	0	0	0	0	0	0;
	7012	372	200.248716	224	-224	1.0507	100	1	472	0	0	0	0	0	0	0	0	0	0	0	0;
	7017	330	348.048024	350	0	1.0507	100	1	430	0	0	0	0	0	0	0	0	0	0	0	0;
	7023	185	6.32026084	120	0	1.0507	100	1	285	0	0	0	0	0	0	0	0	0	0	0	0;
	7024	410	106.669472	224	-224	1.029	100	1	510	0	0	0	0	0	0	0	0	0	0	0	0;
	7039	500	153.345384	200	-200	1.05	100	1	600	0	0	0	0	0	0	0	0	0	0	0	0;
	7044	37	41.5624864	42	0	1.0145	100	1	137	0	0	0	0	0	0	0	0	0	0	0	0;
	7049	455.946477	38.8383995	10	0	1.0507	100	1	2399.005	0	0	0	0	0	0	0	0	0	0	0	0;
	7055	45	25.0134783	25	0	0.9967	100	1	145	0	0	0	0	0	0	0	0	0	0	0	0;
	7057	165	89.906631	90	-90	1.0212	100	1	265	0	0	0	0	0	0	0	0	0	0	0	0;
	7061	400	120.635199	150	-150	1.0145	100	1	500	0	0	0	0	0	0	0	0	0	0	0	0;
	7062	400	150.005105	150	0	1.0017	100	1	500	0	0	0	0	0	0	0	0	0	0	0	0;
	7071	116	86.930218	87	0	0.9893	100	1	216	0	0	0	0	0	0	0	0	0	0	0	0;
	7130	1292	324.365709	600	-100	1.0507	100	1	1392	0	0	0	0	0	0	0	0	0	0	0	0;
	7139	700	283.926593	325	-125	1.0507	100	1	800	0	0	0	0	0	0	0	0	0	0	0	0;
	7166	553	136.924029	300	-200	1.0145	100	1	653	0	0	0	0	0	0	0	0	0	0	0	0;
	9002	0	2.00377756	2	-2	0.9945	100	1	100	0	0	0	0	0	0	0	0	0	0	0	0;
	9051	0	12.1975402	17.35	-17.35	1	100	1	100	0	0	0	0	0	0	0	0	0	0	0	0;
	9053	0	11.1681745	12.83	-12.8	1	100	1	100	0	0	0	0	0	0	0	0	0	0	0	0;
	9054	50	22.0047757	38	-38	1	100	1	150	0	0	0	0	0	0	0	0	0	0	0	0;
	9055	8	4.07232269	6	-6	1	100	1	108	0	0	0	0	0	0	0	0	0	0	0	0;
];

%% branch data
%	fbus	tbus	r	x	b	rateA	rateB	rateC	ratio	angle	status	angmin	angmax	Pf	Qf	Pt	Qt
mpc.branch = [
	37	9001	6e-05	0.00046	0	0	0	75	1.0082	0	1	-360	360	79.6325	8.7266	-79.6287	-8.6978;
	9001	9005	0.0008	0.00348	0	0	0	0	0	0	1	-360	360	36.2022	-6.4602	-36.1917	6.5062;
	9001	9006	0.02439	0.43682	0	0	0	0	0.9668	0	1	-360	360	26.4347	10.3635	-26.2552	-7.1480;
	9001	9012	0.03624	0.64898	0	0	0	0	0.9796	0	1	-360	360	16.9918	4.7945	-16.8859	-2.8982;
	9005	9051	0.01578	0.37486	0	0	0	0	1.0435	0	1	-360	360	36.0358	-6.8328	-35.8100	12.1975;
	9005	9052	0.01578	0.37486	0	0	0	0	0.9391	0	1	-360	360	30.2355	28.5933	-30.0000	-23.0000;
	9005	9053	0.01602	0.38046	0	0	0	0	1.0435	0	1	-360	360	27.9204	-7.3703	-27.7783	10.7453;
	9005	9054	0	0.152	0	0	0	0	1.0435	0	1	-360	360	-50.0000	-17.4688	50.0000	22.0048;
	9005	9055	0	0.8	0	0	0	0	1.0435	0	1	-360	360	-8.0000	-3.4277	8.0000	4.0723;
	9006	9007	0.05558	0.24666	0	0	0	0	0	0	1	-360	360	9.4694	2.6550	-9.4160	-2.4178;
	9006	9003	0.11118	0.49332	0	0	0	0	0	0	1	-360	360	8.3929	2.2465	-8.3094	-1.8763;
	9006	9003	0.11118	0.49332	0	0	0	0	0	0	1	-360	360	8.3929	2.2465	-8.3094	-1.8763;
	9012	9002	0.07622	0.43286	0	0	0	0	0	0	1	-360	360	6.5233	0.7416	-6.4906	-0.5558;
	9012	9002	0.07622	0.43286	0	0	0	0	0	0	1	-360	360	6.5233	0.7416	-6.4906	-0.5558;
	9002	9021	0.0537	0.07026	0	0	0	0	0	0	1	-360	360	7.3533	2.5694	-7.3204	-2.5263;
	9021	9023	1.1068	0.95278	0	0	0	0	0	0	1	-360	360	0.9523	0.3499	-0.9406	-0.3399;
	9021	9022	0.44364	2.8152	0	0	0	0	1	0	1	-360	360	1.6181	0.6163	-1.6045	-0.5300;
	9002	9024	0.50748	3.2202	0	0	0	0	1	0	1	-360	360	1.4279	0.5461	-1.4159	-0.4700;
	9023	9025	0.66688	3.944	0	0	0	0	1	0	1	-360	360	0.4704	0.1704	-0.4686	-0.1600;
	9023	9026	0.6113	3.6152	0	0	0	0	1	0	1	-360	360	0.4703	0.1695	-0.4686	-0.1600;
	9007	9071	0.4412	2.9668	0	0	0	0	1	0	1	-360	360	1.0734	0.3894	-1.0676	-0.3500;
	9007	9072	0.30792	2.057	0	0	0	0	1	0	1	-360	360	1.0721	0.3770	-1.0681	-0.3500;
	9007	9003	0.0558	0.24666	0	0	0	0	0	0	1	-360	360	7.2704	1.6514	-7.2389	-1.5119;
	9003	9031	0.73633	4.6724	0	0	0	0	1	0	1	-360	360	1.9618	0.8619	-1.9268	-0.6400;
	9003	9032	0.76978	4.8846	0	0	0	0	1	0	1	-360	360	1.4726	0.6082	-1.4524	-0.4800;
	9003	9033	0.75732	4.8056	0	0	0	0	1	0	1	-360	360	2.0143	0.8911	-1.9763	-0.6500;
	9003	9044	0.07378	0.06352	0	0	0	0	0	0	1	-360	360	4.4069	1.5834	-4.3902	-1.5690;
	9044	9004	0.03832	0.02894	0	0	0	0	0	0	1	-360	360	4.3902	1.5690	-4.3815	-1.5624;
	9004	9041	0.36614	2.456	0	0	0	0	1	0	1	-360	360	1.0613	0.3828	-1.0564	-0.3500;
	9004	9042	1.0593	5.4536	0	0	0	0	1	0	1	-360	360	0.8554	0.3280	-0.8461	-0.2800;
	9004	9043	0.1567	1.6994	0	0	0	0	1	0	1	-360	360	1.6048	0.5717	-1.6000	-0.5200;
	9003	9034	0.13006	1.3912	0	0	0	0	1	0	1	-360	360	1.6348	-1.1142	-1.6296	1.1705;
	9003	9035	0.54484	3.4572	0	0	0	0	1	0	1	-360	360	1.7616	0.7089	-1.7413	-0.5800;
	9003	9036	0.15426	1.6729	0	0	0	0	1	0	1	-360	360	3.0471	1.1849	-3.0300	-1.0000;
	9003	9037	0.3849	2.5712	0	0	0	0	1	0	1	-360	360	1.9693	0.7584	-1.9516	-0.6400;
	9003	9038	0.4412	2.9668	0	0	0	0	1	0	1	-360	360	2.7440	1.1625	-2.7035	-0.8900;
	9012	9121	0.23552	0.99036	0	0	0	0	0	0	1	-360	360	3.8393	1.4151	-3.8000	-1.2500;
	9053	9533	0	0.75	0	0	0	0	0.9583	0	1	-360	360	1.2983	0.4228	-1.2983	-0.4100;
	1	5	0.001	0.006	0	0	0	0	0	0	1	-360	360	402.0664	96.8471	-400.4493	-87.1443;
	2	6	0.001	0.009	0	0	0	0	0	0	1	-360	360	158.5051	31.0765	-158.2617	-28.8860;
	2	8	0.006	0.027	0.054	0	0	0	0	0	1	-360	360	365.1103	9.7119	-357.6398	18.2280;
	3	7	0	0.003	0	0	0	0	0	0	1	-360	360	260.1432	123.6999	-260.1432	-121.1961;
	3	19	0.008	0.069	0.139	0	0	0	0	0	1	-360	360	139.1342	5.5837	-137.5640	-5.6511;
	3	150	0.001	0.007	0	0	0	0	0	0	1	-360	360	92.8992	131.8195	-92.6376	-129.9884;
	4	16	0.002	0.019	1.127	0	0	0	0	0	1	-360	360	712.5467	-93.0920	-702.9694	64.2337;
	5	9	0.006	0.029	0.018	0	0	0	0	0	1	-360	360	119.3314	31.4300	-118.4482	-29.0022;
	7	12	0.001	0.009	0.07	0	0	0	0	0	1	-360	360	180.4869	-65.6835	-180.1176	62.0718;
	7	131	0.001	0.007	0.014	0	0	0	0	0	1	-360	360	46.0360	95.8765	-45.9200	-96.4363;
	8	11	0.013	0.0595	0.033	0	0	0	0	0	1	-360	360	1.5457	14.4169	-1.5127	-17.6351;
	8	14	0.013	0.042	0.081	0	0	0	0	0	1	-360	360	293.0941	-36.7972	-282.1264	64.0132;
	9	11	0.006	0.027	0.013	0	0	0	0	0	1	-360	360	22.4482	-13.9978	-22.4076	12.8689;
	11	13	0.008	0.034	0.018	0	0	0	0	0	1	-360	360	153.4094	-9.3010	-151.5422	15.4306;
	12	21	0.002	0.015	0.118	0	0	0	0	0	1	-360	360	420.6284	98.4617	-416.8523	-81.6208;
	13	20	0.006	0.034	0.016	0	0	0	0	0	1	-360	360	93.5422	-25.4306	-92.9782	27.0290;
	14	15	0.014	0.042	0.097	0	0	0	0	0	1	-360	360	122.1264	-124.0132	-118.0433	126.2312;
	15	37	0.065	0.248	0.121	0	0	0	0	0	1	-360	360	19.9581	-5.3136	-19.7153	-6.5297;
	15	89	0.099	0.248	0.035	0	0	0	0	0	1	-360	360	17.2146	-7.1972	-16.9141	4.2146;
	15	90	0.096	0.363	0.048	0	0	0	0	0	1	-360	360	13.3171	-3.7321	-13.1568	-0.7620;
	16	42	0.002	0.022	1.28	0	0	0	0	0	1	-360	360	401.1970	-150.1404	-398.0455	46.8182;
	19	21	0.002	0.018	0.036	0	0	0	0	0	1	-360	360	-45.9366	40.4622	46.0173	-43.1830;
	19	87	0.013	0.08	0.151	0	0	0	0	0	1	-360	360	183.5006	-34.8111	-178.8583	48.6704;
	20	22	0.016	0.033	0.015	0	0	0	0	0	1	-360	360	-15.1218	21.0365	15.2341	-22.3008;
	20	27	0.069	0.186	0.098	0	0	0	0	0	1	-360	360	24.3134	0.5183	-23.8860	-8.9345;
	21	24	0.004	0.034	0.28	0	0	0	0	0	1	-360	360	-227.3784	-65.5086	229.6677	57.4955;
	22	23	0.052	0.111	0.05	0	0	0	0	0	1	-360	360	-96.2341	-0.6992	101.0876	5.8214;
	23	25	0.019	0.039	0.018	0	0	0	0	0	1	-360	360	126.4690	12.0243	-123.6839	-8.2425;
	24	319	0.007	0.068	0.134	0	0	0	0	0	1	-360	360	116.7756	-28.2038	-115.8000	24.0000;
	25	26	0.036	0.071	0.034	0	0	0	0	0	1	-360	360	78.6839	-3.7575	-76.5543	4.4820;
	26	27	0.045	0.12	0.065	0	0	0	0	0	1	-360	360	46.0778	0.3052	-45.1140	-4.0655;
	26	320	0.043	0.13	0.014	0	0	0	0	0	1	-360	360	2.4765	-13.7872	-2.4000	12.6000;
	33	34	0	0.063	0	0	0	0	0	0	1	-360	360	-121.1231	-23.1091	121.1231	32.2343;
	33	38	0.0025	0.012	0.013	0	0	0	0	0	1	-360	360	85.5338	18.1942	-85.3511	-18.6761;
	33	40	0.006	0.029	0.02	0	0	0	0	0	1	-360	360	47.9536	-0.3732	-47.8222	-1.0849;
	33	41	0.007	0.043	0.026	0	0	0	0	0	1	-360	360	-67.3643	-0.7119	67.6670	-0.1710;
	34	42	0.001	0.008	0.042	0	0	0	0	0	1	-360	360	-121.1231	-32.2343	121.2666	28.8120;
	35	72	0.012	0.06	0.008	0	0	0	0	0	1	-360	360	48.5929	0.5202	-48.2951	0.2117;
	35	76	0.006	0.014	0.002	0	0	0	0	0	1	-360	360	113.0429	39.1759	-112.1403	-37.2578;
	35	77	0.01	0.029	0.003	0	0	0	0	0	1	-360	360	-48.0970	-10.5091	48.3513	10.9586;
	36	88	0.004	0.027	0.043	0	0	0	0	0	1	-360	360	-113.5388	-35.9720	114.0989	35.3814;
	37	38	0.008	0.047	0.008	0	0	0	0	0	1	-360	360	49.7780	-8.6308	-49.5823	8.9476;
	37	40	0.022	0.064	0.007	0	0	0	0	0	1	-360	360	38.7530	-15.4779	-38.3872	15.8124;
	37	41	0.01	0.036	0.02	0	0	0	0	0	1	-360	360	-43.8867	-14.4306	44.0890	13.0588;
	37	49	0.017	0.081	0.048	0	0	0	0	0	1	-360	360	-185.9191	15.8059	191.6201	6.2265;
	37	89	0.102	0.254	0.033	0	0	0	0	0	1	-360	360	-2.0519	-5.5383	2.0703	2.1107;
	37	90	0.047	0.127	0.016	0	0	0	0	0	1	-360	360	-1.5904	-5.9252	1.6033	4.2831;
	38	41	0.008	0.037	0.02	0	0	0	0	0	1	-360	360	-104.6970	-1.2127	105.5394	3.0081;
	38	43	0.032	0.087	0.04	0	0	0	0	0	1	-360	360	84.6303	-7.0587	-82.4211	8.9800;
	39	42	0.0006	0.0064	0.404	0	0	0	0	0	1	-360	360	500.0000	80.3649	-498.5917	-109.8231;
	40	48	0.026	0.154	0.022	0	0	0	0	0	1	-360	360	40.2094	6.2725	-39.7930	-6.0583;
	41	42	0	0.029	0	0	0	0	0	0	1	-360	360	-195.3239	-50.4387	195.3239	61.5785;
	41	49	0.065	0.191	0.02	0	0	0	0	0	1	-360	360	-67.3941	16.8637	70.3779	-10.2527;
	41	51	0.031	0.089	0.036	0	0	0	0	0	1	-360	360	-40.5773	17.6791	41.1713	-19.7731;
	42	46	0.002	0.014	0.806	0	0	0	0	0	1	-360	360	580.0467	-27.3855	-573.8789	-16.5741;
	43	44	0.026	0.072	0.035	0	0	0	0	0	1	-360	360	10.9295	-16.7279	-10.8403	13.4417;
	43	48	0.095	0.262	0.032	0	0	0	0	0	1	-360	360	-3.9361	-0.6196	3.9517	-2.5460;
	43	53	0.013	0.039	0.016	0	0	0	0	0	1	-360	360	36.4277	-0.6325	-36.2555	-0.4455;
	44	47	0.027	0.084	0.039	0	0	0	0	0	1	-360	360	118.8079	2.7553	-115.0565	5.0667;
	44	54	0.028	0.084	0.037	0	0	0	0	0	1	-360	360	-21.5372	9.8885	21.7030	-13.1427;
	45	60	0.007	0.041	0.312	0	0	0	0	0	1	-360	360	-223.3547	24.6110	226.8125	-37.0212;
	45	74	0.009	0.054	0.411	0	0	0	0	0	1	-360	360	241.7411	0.9417	-236.6589	-12.3037;
	46	81	0.005	0.042	0.69	0	0	0	0	0	1	-360	360	311.0621	-53.6871	-306.5284	17.9524;
	47	73	0.052	0.145	0.073	0	0	0	0	0	1	-360	360	26.5064	-12.1507	-26.0835	6.3511;
	47	113	0.043	0.118	0.013	0	0	0	0	0	1	-360	360	30.5502	-4.7161	-30.1229	4.6551;
	48	107	0.025	0.062	0.007	0	0	0	0	0	1	-360	360	-5.1587	-10.3957	5.1905	9.7664;
	49	51	0.031	0.094	0.043	0	0	0	0	0	1	-360	360	101.9484	-6.6551	-99.0068	10.9552;
	51	52	0.037	0.109	0.049	0	0	0	0	0	1	-360	360	62.8355	3.8179	-61.4317	-4.6986;
	52	55	0.027	0.08	0.036	0	0	0	0	0	1	-360	360	0.4317	-23.3014	-0.3062	20.0254;
	53	54	0.025	0.073	0.035	0	0	0	0	0	1	-360	360	-32.7445	-2.5545	33.0149	-0.1603;
	54	55	0.035	0.103	0.047	0	0	0	0	0	1	-360	360	-64.7179	12.3029	66.2435	-12.6091;
	55	57	0.065	0.169	0.082	0	0	0	0	0	1	-360	360	-42.9373	2.9548	44.1327	-8.4512;
	57	58	0.046	0.08	0.036	0	0	0	0	0	1	-360	360	-10.1228	58.5134	11.7400	-59.3942;
	57	63	0.159	0.537	0.071	0	0	0	0	0	1	-360	360	32.9902	3.5060	-31.2907	-4.8183;
	58	59	0.009	0.026	0.005	0	0	0	0	0	1	-360	360	-25.7400	58.3942	26.1152	-57.7957;
	59	61	0.002	0.013	0.015	0	0	0	0	0	1	-360	360	-244.1152	-48.2043	245.4062	55.1408;
	60	62	0.009	0.065	0.485	0	0	0	0	0	1	-360	360	-226.8125	37.0212	231.5565	-53.2571;
	62	64	0.016	0.105	0.203	0	0	0	0	0	1	-360	360	197.1934	44.9830	-190.6900	-21.9030;
	62	144	0.001	0.007	0.013	0	0	0	0	0	1	-360	360	-101.1561	13.1695	101.2571	-13.8048;
	63	526	0.0265	0.172	0.026	0	0	0	0	0	1	-360	360	151.9807	6.1120	-145.3000	34.9000;
	69	211	0.051	0.232	0.028	0	0	0	0	0	1	-360	360	-27.4515	-10.7216	27.9151	10.1277;
	69	79	0.051	0.157	0.023	0	0	0	0	0	1	-360	360	-17.3041	-7.0924	17.4888	5.4864;
	70	71	0.032	0.1	0.062	0	0	0	0	0	1	-360	360	-84.3678	1.4387	86.8909	0.6672;
	70	528	0.02	0.1234	0.028	0	0	0	0	0	1	-360	360	28.3678	-21.4387	-28.1000	20.5000;
	71	72	0.036	0.131	0.068	0	0	0	0	0	1	-360	360	-26.2331	11.8946	26.5776	-17.0988;
	71	73	0.034	0.099	0.047	0	0	0	0	0	1	-360	360	-60.6579	22.8229	62.1849	-22.8764;
	72	77	0.018	0.087	0.011	0	0	0	0	0	1	-360	360	-49.3386	-5.0360	49.8086	6.2582;
	72	531	0.0256	0.193	0	0	0	0	0	0	1	-360	360	14.0561	2.9231	-14.0000	-2.5000;
	73	76	0.021	0.057	0.03	0	0	0	0	0	1	-360	360	27.5031	13.2967	-27.2892	-15.5414;
	73	79	0.018	0.052	0.018	0	0	0	0	0	1	-360	360	-23.4022	-0.8868	23.5054	-0.5433;
	74	88	0.004	0.027	0.05	0	0	0	0	0	1	-360	360	-78.8065	-59.3829	79.1871	56.8926;
	74	562	0.0286	0.2013	0.379	0	0	0	0	0	1	-360	360	51.2631	-14.1612	-50.5000	-17.4000;
	76	77	0.016	0.043	0.004	0	0	0	0	0	1	-360	360	-68.5705	-19.9359	69.4487	21.9169;
	77	78	0.001	0.006	0.007	0	0	0	0	0	1	-360	360	-257.8534	-57.7139	258.5744	61.3581;
	77	80	0.014	0.07	0.038	0	0	0	0	0	1	-360	360	-3.1181	-6.0693	3.1221	2.3985;
	77	552	0.0891	0.2676	0.029	0	0	0	0	0	1	-360	360	-10.9832	-3.9052	11.1000	1.4000;
	77	609	0.0782	0.2127	0.022	0	0	0	0	0	1	-360	360	30.3462	0.5547	-29.6000	-0.6000;
	78	79	0.006	0.022	0.011	0	0	0	0	0	1	-360	360	79.4256	14.4920	-79.0256	-14.0948;
	78	84	0	0.036	0	0	0	0	0	0	1	-360	360	-338.0000	-75.8501	338.0000	119.9241;
	79	211	0.099	0.375	0.051	0	0	0	0	0	1	-360	360	-9.9686	-4.8483	10.0765	0.2385;
	80	211	0.022	0.107	0.058	0	0	0	0	0	1	-360	360	-31.1221	-9.3985	31.3505	4.7722;
	81	194	0.0035	0.033	0.53	0	0	0	0	0	1	-360	360	11.4693	-76.0730	-11.3904	19.3173;
	81	195	0.0035	0.033	0.53	0	0	0	0	0	1	-360	360	101.7731	-43.0547	-101.4271	-10.4589;
	85	86	0.008	0.064	0.128	0	0	0	0	0	1	-360	360	-92.6571	2.5087	93.3683	-9.3385;
	86	87	0.012	0.093	0.183	0	0	0	0	0	1	-360	360	-116.1723	11.4975	117.8732	-16.3012;
	86	323	0.006	0.048	0.092	0	0	0	0	0	1	-360	360	-14.8558	17.9121	14.9000	-26.5000;
	89	91	0.047	0.119	0.014	0	0	0	0	0	1	-360	360	-29.3562	-6.3252	29.7505	5.8037;
	90	92	0.032	0.174	0.024	0	0	0	0	0	1	-360	360	-54.4465	-3.5211	55.3470	5.8234;
	91	94	0.1	0.253	0.031	0	0	0	0	0	1	-360	360	8.4712	19.4920	-8.0000	-21.5434;
	91	97	0.022	0.077	0.039	0	0	0	0	0	1	-360	360	99.3783	18.7331	-97.3283	-15.7379;
	92	103	0.019	0.144	0.017	0	0	0	0	0	1	-360	360	78.3160	9.6514	-77.2437	-3.3652;
	92	105	0.017	0.092	0.012	0	0	0	0	0	1	-360	360	140.5370	15.4876	-137.4631	-0.1431;
	94	97	0.278	0.427	0.043	0	0	0	0	0	1	-360	360	8.6851	-13.1217	-8.1311	9.6238;
	97	100	0.022	0.053	0.007	0	0	0	0	0	1	-360	360	43.4728	5.5394	-43.0644	-5.2726;
	97	102	0.038	0.092	0.012	0	0	0	0	0	1	-360	360	40.1902	2.8430	-39.5938	-2.6219;
	97	103	0.048	0.122	0.015	0	0	0	0	0	1	-360	360	-18.1036	-2.2683	18.2564	1.0852;
	98	100	0.024	0.064	0.007	0	0	0	0	0	1	-360	360	-6.9581	-7.0875	6.9806	6.4434;
	98	102	0.034	0.121	0.015	0	0	0	0	0	1	-360	360	8.2581	-3.6057	-8.2321	2.1970;
	99	107	0.053	0.135	0.017	0	0	0	0	0	1	-360	360	-52.2935	7.0417	53.8077	-4.8828;
	99	108	0.002	0.004	0.002	0	0	0	0	0	1	-360	360	-10.3793	-10.7756	10.3838	10.5888;
	99	109	0.045	0.354	0.044	0	0	0	0	0	1	-360	360	28.3230	-0.3575	-27.9527	-0.9755;
	99	110	0.05	0.174	0.022	0	0	0	0	0	1	-360	360	43.5069	-2.6496	-42.5387	3.9002;
	100	102	0.016	0.038	0.004	0	0	0	0	0	1	-360	360	36.0838	-1.1708	-35.8778	1.2574;
	102	104	0.043	0.064	0.027	0	0	0	0	0	1	-360	360	43.5635	-21.7939	-42.5691	20.5834;
	103	105	0.019	0.062	0.008	0	0	0	0	0	1	-360	360	26.9873	2.2800	-26.8553	-2.6904;
	104	108	0.076	0.13	0.044	0	0	0	0	0	1	-360	360	31.5571	-15.2230	-30.6634	12.4143;
	104	322	0.044	0.124	0.015	0	0	0	0	0	1	-360	360	2.4120	-5.3603	-2.4000	3.9000;
	105	107	0.012	0.088	0.011	0	0	0	0	0	1	-360	360	64.0767	7.2575	-63.5982	-4.8837;
	105	110	0.157	0.4	0.047	0	0	0	0	0	1	-360	360	50.6416	-4.4240	-46.7829	9.5735;
	108	324	0.074	0.208	0.026	0	0	0	0	0	1	-360	360	25.1796	-2.3618	-24.7000	1.2000;
	109	110	0.07	0.184	0.021	0	0	0	0	0	1	-360	360	-10.2890	4.1379	10.3863	-5.8752;
	109	113	0.1	0.274	0.031	0	0	0	0	0	1	-360	360	-3.8957	1.7966	3.9229	-4.6551;
	109	114	0.109	0.393	0.036	0	0	0	0	0	1	-360	360	11.4374	-4.9589	-11.2754	2.1136;
	110	112	0.142	0.404	0.05	0	0	0	0	0	1	-360	360	15.9353	-7.5986	-15.5136	4.0566;
	112	114	0.017	0.042	0.006	0	0	0	0	0	1	-360	360	-4.0864	-4.0566	4.0920	3.4991;
	115	122	0.0036	0.0199	0.004	0	0	0	0	0	1	-360	360	52.5364	-69.6241	-52.2404	70.8866;
	116	120	0.002	0.1049	0.001	0	0	0	0	0	1	-360	360	-62.6752	68.2255	62.8388	-59.7448;
	117	118	0.0001	0.0018	0.017	0	0	0	0	0	1	-360	360	-487.6804	287.4010	488.0476	-282.2699;
	118	119	0	0.0271	0	0	0	0	0	0	1	-360	360	-577.9304	-342.9940	577.9304	484.5542;
	118	1201	0	0.6163	0	0	0	0	0	0	1	-360	360	29.2832	-9.5899	-29.2832	16.3577;
	1201	120	0	-0.3697	0	0	0	0	0	0	1	-360	360	29.2832	-16.3577	-29.2832	12.2979;
	118	121	0.0022	0.2915	0	0	0	0	0	0	1	-360	360	46.4997	-15.1462	-46.4388	23.2093;
	119	120	0	0.0339	0	0	0	0	0	0	1	-360	360	710.5556	348.6834	-710.5556	-153.6474;
	119	121	0	0.0582	0	0	0	0	0	0	1	-360	360	541.0976	185.8469	-541.0976	-10.8952;
	122	123	0.0808	0.2344	0.029	0	0	0	0	0	1	-360	360	17.8284	-18.3756	-17.3101	17.0551;
	122	125	0.0965	0.3669	0.054	0	0	0	0	0	1	-360	360	15.4729	-15.8951	-15.0473	12.2022;
	123	124	0.036	0.1076	0.117	0	0	0	0	0	1	-360	360	-67.5207	-1.8928	69.1657	-5.1732;
	123	125	0.0476	0.1414	0.149	0	0	0	0	0	1	-360	360	6.8308	-16.5623	-6.7692	1.6822;
	125	126	0.0006	0.0197	0	0	0	0	0	0	1	-360	360	-492.9835	103.2511	494.4747	-54.2873;
	126	127	0.0059	0.0405	0.25	0	0	0	0	0	1	-360	360	-99.0769	-1.7042	99.6654	-19.2038;
	126	129	0.0115	0.1106	0.185	0	0	0	0	0	1	-360	360	-131.2153	9.7543	133.2456	-8.7396;
	126	132	0.0198	0.1688	0.321	0	0	0	0	0	1	-360	360	-158.3646	21.3398	163.6293	-8.6330;
	126	157	0.005	0.05	0.33	0	0	0	0	0	1	-360	360	-29.1729	13.3401	29.2602	-44.8866;
	126	158	0.0077	0.0538	0.335	0	0	0	0	0	1	-360	360	-46.4616	-11.1171	46.6309	-21.0827;
	126	169	0.0165	0.1157	0.171	0	0	0	0	0	1	-360	360	-88.0834	17.5745	89.4820	-24.6232;
	127	128	0.0059	0.0577	0.095	0	0	0	0	0	1	-360	360	-171.6690	17.5851	173.4367	-9.8214;
	127	134	0.0049	0.0336	0.208	0	0	0	0	0	1	-360	360	-137.7994	-52.7847	138.8176	38.4997;
	127	168	0.0059	0.0577	0.095	0	0	0	0	0	1	-360	360	-170.9970	17.4035	172.7507	-9.7776;
	128	130	0.0078	0.0773	0.126	0	0	0	0	0	1	-360	360	-234.7045	17.0946	239.0232	12.8312;
	128	133	0.0026	0.0193	0.03	0	0	0	0	0	1	-360	360	61.2677	-7.2732	-61.1697	4.9873;
	129	130	0.0076	0.0752	0.122	0	0	0	0	0	1	-360	360	-232.7001	16.0936	236.8296	12.2969;
	129	133	0.0021	0.0186	0.03	0	0	0	0	0	1	-360	360	99.4544	-7.3540	-99.2472	6.1752;
	130	132	0.0016	0.0164	0.026	0	0	0	0	0	1	-360	360	280.5778	67.9173	-279.2912	-57.3914;
	130	151	0.0017	0.0165	0.026	0	0	0	0	0	1	-360	360	162.1897	72.2102	-161.6705	-69.8344;
	130	167	0.0079	0.0793	0.127	0	0	0	0	0	1	-360	360	275.7397	56.5862	-269.6530	-8.0761;
	130	168	0.0078	0.0784	0.125	0	0	0	0	0	1	-360	360	236.1977	12.9545	-231.9796	16.6708;
	133	137	0.0017	0.0117	0.289	0	0	0	0	0	1	-360	360	-665.5701	-282.0282	674.2826	311.6400;
	133	168	0.0026	0.0193	0.03	0	0	0	0	0	1	-360	360	-59.1374	4.5592	59.2289	-6.8932;
	133	169	0.0021	0.0186	0.03	0	0	0	0	0	1	-360	360	120.2761	62.2563	-119.8884	-61.7929;
	133	171	0.0002	0.0101	0	0	0	0	0	0	1	-360	360	764.8483	204.0501	-763.6000	-141.0128;
	134	135	0.0043	0.0293	0.18	0	0	0	0	0	1	-360	360	-76.7571	12.3143	77.0191	-29.2827;
	134	184	0.0039	0.0381	0.258	0	0	0	0	0	1	-360	360	-62.0604	-50.8141	62.2563	25.3366;
	135	136	0.0091	0.0623	0.385	0	0	0	0	0	1	-360	360	-246.2191	-12.3173	251.5337	7.5746;
	136	137	0.0125	0.089	0.54	0	0	0	0	0	1	-360	360	63.4527	-36.2735	-62.9891	-19.6589;
	136	152	0.0056	0.039	0.953	0	0	0	0	0	1	-360	360	-370.1864	10.4989	377.3804	-65.5759;
	137	140	0.0015	0.0114	0.284	0	0	0	0	0	1	-360	360	331.0579	-15.7781	-329.5585	-3.8420;
	137	181	0.0005	0.0034	0.021	0	0	0	0	0	1	-360	360	-91.9667	-133.3829	92.0850	131.8746;
	137	186	0.0007	0.0151	0.126	0	0	0	0	0	1	-360	360	-471.0980	-94.4930	472.5639	112.0622;
	137	188	0.0005	0.0034	0.021	0	0	0	0	0	1	-360	360	-431.7813	-125.7637	432.7023	129.7107;
	139	172	0.0562	0.2248	0.081	0	0	0	0	0	1	-360	360	18.8652	-14.1084	-18.6153	6.7120;
	140	141	0.012	0.0836	0.123	0	0	0	0	0	1	-360	360	-79.1769	-2.8907	79.8700	-5.7639;
	140	142	0.0152	0.1132	0.684	0	0	0	0	0	1	-360	360	-7.4027	-10.8249	7.5076	-60.8669;
	140	145	0.0468	0.3369	0.519	0	0	0	0	0	1	-360	360	-15.9884	-14.6963	16.1771	-38.5465;
	140	146	0.043	0.3031	0.463	0	0	0	0	0	1	-360	360	-47.9531	-18.4387	48.8801	-25.8699;
	140	147	0.0489	0.3492	0.538	0	0	0	0	0	1	-360	360	-62.5624	-16.7850	64.3918	-29.2292;
	140	182	0.0013	0.0089	0.119	0	0	0	0	0	1	-360	360	154.9420	-47.2223	-154.6353	36.3568;
	141	146	0.0291	0.2267	0.342	0	0	0	0	0	1	-360	360	-35.7138	-13.7819	36.0567	-21.3890;
	142	143	0.006	0.057	0.767	0	0	0	0	0	1	-360	360	-221.6582	-52.9919	224.5273	-1.0595;
	143	145	0.0075	0.0773	0.119	0	0	0	0	0	1	-360	360	103.4883	34.9001	-102.6327	-38.6075;
	143	149	0.0127	0.0909	0.135	0	0	0	0	0	1	-360	360	-29.9038	-37.3427	30.1131	23.7114;
	145	146	0.0085	0.0588	0.087	0	0	0	0	0	1	-360	360	-148.0786	-54.1340	150.1193	59.0083;
	145	149	0.0218	0.1511	0.223	0	0	0	0	0	1	-360	360	-71.5927	-41.4681	72.8869	26.2583;
	146	147	0.0073	0.0504	0.074	0	0	0	0	0	1	-360	360	-151.0561	23.2484	152.6082	-20.7347;
	148	178	0.0523	0.1526	0.074	0	0	0	0	0	1	-360	360	95.9482	49.3532	-90.3069	-40.3004;
	148	179	0.1371	0.3919	0.076	0	0	0	0	0	1	-360	360	47.6113	6.4910	-44.6920	-5.9722;
	152	153	0.0137	0.0957	0.141	0	0	0	0	0	1	-360	360	-22.3804	6.6480	22.4681	-21.5367;
	153	161	0.0055	0.0288	0.19	0	0	0	0	0	1	-360	360	107.4062	-2.4848	-106.8204	-14.9901;
	154	156	0.1746	0.3161	0.04	0	0	0	0	0	1	-360	360	-25.9196	15.6535	27.7495	-16.0634;
	154	183	0.0804	0.3054	0.045	0	0	0	0	0	1	-360	360	-44.0804	11.5681	45.9139	-8.8290;
	155	161	0.011	0.0568	0.388	0	0	0	0	0	1	-360	360	-71.2475	-37.9506	71.8204	-0.0099;
	157	159	0.0008	0.0098	0.069	0	0	0	0	0	1	-360	360	-363.1668	11.1866	364.2572	-4.5312;
	158	159	0.0029	0.0285	0.19	0	0	0	0	0	1	-360	360	-90.1062	43.2885	90.4232	-58.8965;
	158	160	0.0066	0.0448	0.277	0	0	0	0	0	1	-360	360	43.4753	-22.2058	-43.3456	-4.5723;
	162	164	0.0024	0.0326	0.236	0	0	0	0	0	1	-360	360	461.8771	13.9969	-456.6564	33.8868;
	162	165	0.0018	0.0245	1.662	0	0	0	0	0	1	-360	360	-546.8771	-37.9969	552.3846	-51.9208;
	163	164	0.0044	0.0514	3.597	0	0	0	0	0	1	-360	360	-221.6928	-46.4539	224.5830	-288.7974;
	165	166	0.0002	0.0123	0	0	0	0	0	0	1	-360	360	-552.3846	51.9208	553.0000	-14.0744;
	167	169	0.0018	0.0178	0.029	0	0	0	0	0	1	-360	360	-30.2470	-87.6239	30.4064	86.4161;
	172	173	0.0669	0.4843	0.063	0	0	0	0	0	1	-360	360	24.5706	3.2826	-24.1581	-6.6504;
	172	174	0.0558	0.221	0.031	0	0	0	0	0	1	-360	360	-32.4553	-9.9946	33.0526	8.9845;
	173	174	0.0807	0.3331	0.049	0	0	0	0	0	1	-360	360	-55.9702	-7.1848	58.6024	12.9143;
	173	175	0.0739	0.3071	0.043	0	0	0	0	0	1	-360	360	-27.3838	9.3563	28.0564	-10.6772;
	173	176	0.1799	0.5017	0.069	0	0	0	0	0	1	-360	360	-55.9879	12.7604	62.2980	-2.3208;
	175	176	0.0904	0.3626	0.048	0	0	0	0	0	1	-360	360	-58.2557	-2.9418	61.4961	11.0098;
	175	179	0.077	0.3092	0.054	0	0	0	0	0	1	-360	360	11.1038	-4.1076	-11.0016	-0.5785;
	176	177	0.0251	0.0829	0.047	0	0	0	0	0	1	-360	360	99.2059	27.0294	-96.7755	-23.9906;
	177	178	0.0222	0.0847	0.05	0	0	0	0	0	1	-360	360	152.7755	46.9803	-147.1368	-30.2133;
	178	179	0.0498	0.1855	0.029	0	0	0	0	0	1	-360	360	18.7228	-20.9770	-18.3064	19.8834;
	178	180	0.0061	0.029	0.084	0	0	0	0	0	1	-360	360	-208.6791	-82.1092	212.1112	90.6882;
	181	138	0.0004	0.0202	0	0	0	0	0	0	1	-360	360	481.3167	-4.9357	-480.4790	47.2389;
	181	187	0.0004	0.0083	0.115	0	0	0	0	0	1	-360	360	-646.8017	-126.9389	648.3669	146.5323;
	184	185	0.0025	0.0245	0.164	0	0	0	0	0	1	-360	360	-199.0563	-41.9366	200.0000	33.2616;
	186	188	0.0007	0.0086	0.115	0	0	0	0	0	1	-360	360	667.6361	100.9032	-664.8140	-79.1320;
	187	188	0.0007	0.0086	0.115	0	0	0	0	0	1	-360	360	491.8331	107.4894	-490.2600	-101.0632;
	188	138	0.0004	0.0202	0	0	0	0	0	0	1	-360	360	539.7717	6.8845	-538.7210	46.1737;
	189	208	0.033	0.095	0	0	0	0	0	0	1	-360	360	17.3108	-2.3559	-17.2106	2.6442;
	189	209	0.046	0.069	0	0	0	0	0	0	1	-360	360	-8.3797	2.6908	8.4151	-2.6377;
	190	231	0.0004	0.0022	6.2	0	0	0	0	0	1	-360	360	528.9429	-363.6904	-527.9363	-319.9607;
	190	240	0	0.0275	0	0	0	0	0	0	1	-360	360	-33.0943	120.3200	33.0943	-116.4733;
	191	192	0.003	0.048	0	0	0	0	0	0	1	-360	360	831.9994	346.5592	-809.6190	11.5264;
	192	225	0.002	0.009	0	0	0	0	0	0	1	-360	360	9.6190	-83.5264	-9.4582	84.2503;
	193	205	0.045	0.063	0	0	0	0	0	0	1	-360	360	28.4935	0.0021	-28.1269	0.5112;
	193	208	0.048	0.127	0	0	0	0	0	0	1	-360	360	-5.9707	1.3367	5.9887	-1.2890;
	194	219	0.0031	0.0286	0.5	0	0	0	0	0	1	-360	360	124.7237	-62.5003	-124.2510	11.5047;
	194	664	0.0024	0.0355	0.36	0	0	0	0	0	1	-360	360	-113.3333	43.1829	113.7000	-76.7000;
	195	219	0.0031	0.0286	0.5	0	0	0	0	0	1	-360	360	16.6064	-99.2410	-16.4469	46.0368;
	196	197	0.014	0.04	0.004	0	0	0	0	0	1	-360	360	-57.7190	-24.4854	58.2978	25.7522;
	196	210	0.03	0.081	0.01	0	0	0	0	0	1	-360	360	-13.8339	-3.0592	13.8965	2.2733;
	197	198	0.01	0.06	0.009	0	0	0	0	0	1	-360	360	-90.2424	-20.4136	91.1097	24.7102;
	197	211	0.015	0.04	0.006	0	0	0	0	0	1	-360	360	-11.0553	-19.3387	11.1292	18.9390;
	198	202	0.332	0.688	0	0	0	0	0	0	1	-360	360	11.6785	-1.5422	-11.2313	2.4689;
	198	203	0.009	0.046	0.025	0	0	0	0	0	1	-360	360	73.1912	11.2084	-72.7096	-11.2930;
	198	210	0.02	0.073	0.008	0	0	0	0	0	1	-360	360	90.4905	25.3725	-88.7718	-19.8958;
	198	211	0.034	0.109	0.032	0	0	0	0	0	1	-360	360	46.4970	-2.7034	-45.7832	1.7378;
	199	200	0.076	0.135	0.009	0	0	0	0	0	1	-360	360	-1.2710	-1.0088	1.2727	0.1904;
	199	210	0.04	0.102	0.005	0	0	0	0	0	1	-360	360	-33.7290	-10.9912	34.2795	11.9272;
	200	210	0.081	0.128	0.014	0	0	0	0	0	1	-360	360	-24.1427	-3.1591	24.6647	2.6711;
	201	204	0.124	0.183	0	0	0	0	0	0	1	-360	360	3.7556	1.3604	-3.7347	-1.3296;
	203	211	0.01	0.059	0.008	0	0	0	0	0	1	-360	360	30.7096	-2.7070	-30.6154	2.4587;
	204	205	0.046	0.068	0	0	0	0	0	0	1	-360	360	-29.6547	-6.5013	30.1084	7.1720;
	205	206	0.302	0.446	0	0	0	0	0	0	1	-360	360	-1.9816	-2.6831	2.0161	2.7342;
	206	207	0.073	0.093	0	0	0	0	0	0	1	-360	360	-9.8641	-8.2121	9.9835	8.3641;
	206	208	0.24	0.421	0	0	0	0	0	0	1	-360	360	-4.1520	3.4778	4.2219	-3.3553;
	212	215	0.0139	0.0778	0.086	0	0	0	0	0	1	-360	360	-42.7556	38.8995	43.2571	-44.6932;
	213	214	0.0025	0.038	0	0	0	0	1	0	1	-360	360	272.0000	44.0825	-270.1392	-15.7986;
	214	215	0.0017	0.0185	0.02	0	0	0	0	0	1	-360	360	251.3813	9.8910	-250.2873	0.0573;
	214	242	0.0015	0.0108	0.002	0	0	0	0	0	1	-360	360	-3.2421	-10.0923	3.2438	9.9075;
	215	216	0.0045	0.0249	0.026	0	0	0	0	0	1	-360	360	160.0302	18.6359	-158.8280	-14.4854;
	216	217	0.004	0.0497	0.018	0	0	0	0	0	1	-360	360	-17.1720	-90.5146	17.5225	93.0756;
	217	218	0	0.0456	0	0	0	0	0	0	1	-360	360	17.1359	31.3784	-17.1359	-30.8198;
	217	219	0.0005	0.0177	0.02	0	0	0	0	0	1	-360	360	-115.8971	-192.3895	116.1368	198.7208;
	217	220	0.0027	0.0395	0.832	0	0	0	0	0	1	-360	360	-18.7614	-7.0645	18.8047	-77.9806;
	219	237	0.0003	0.0018	5.2	0	0	0	0	0	1	-360	360	-56.4916	-305.3812	56.5008	-274.0333;
	220	218	0.0037	0.0484	0.43	0	0	0	0	0	1	-360	360	32.9312	-23.1587	-32.8916	-19.9950;
	220	221	0.001	0.0295	0.503	0	0	0	0	0	1	-360	360	46.5251	0.5093	-46.4971	-50.3876;
	220	238	0.0016	0.0046	0.402	0	0	0	0	0	1	-360	360	-283.2610	36.3509	284.5752	-73.4993;
	221	223	0.0003	0.0013	1	0	0	0	0	0	1	-360	360	325.4971	140.7021	-325.0702	-238.5077;
	222	237	0.0014	0.0514	0.33	0	0	0	1	0	1	-360	360	-78.0000	-26.6147	78.0782	-7.1016;
	224	225	0.01	0.064	0.48	0	0	0	0	0	1	-360	360	-238.9146	122.6297	246.7690	-117.8188;
	224	226	0.0019	0.0081	0.86	0	0	0	0	0	1	-360	360	-37.1448	-253.5125	38.0124	169.6269;
	225	191	0.001	0.061	0	0	0	0	0	0	1	-360	360	-647.3108	-6.4316	652.0006	292.5075;
	226	231	0.0005	0.0212	0	0	0	0	0	0	1	-360	360	-38.0124	-169.6269	38.1582	175.8086;
	227	231	0.0009	0.0472	0.186	0	0	0	1	0	1	-360	360	-235.0000	-106.0422	235.5813	116.9033;
	228	229	0.0019	0.0087	1.28	0	0	0	0	0	1	-360	360	-226.1188	-104.4647	227.0343	-31.3798;
	228	231	0.0026	0.0917	0	0	0	0	0	0	1	-360	360	5.5578	-12.8561	-5.5531	13.0217;
	228	234	0.0013	0.0288	0.81	0	0	0	0	0	1	-360	360	-2.4390	-30.6792	2.4412	-56.9715;
	229	190	0	0.0626	0	0	0	0	0	0	1	-360	360	20.8485	-9.1791	-20.8485	9.4740;
	231	232	0.0002	0.0069	1.364	0	0	0	0	0	1	-360	360	552.8990	102.0707	-552.2912	-230.7743;
	231	237	0.0001	0.0006	3.57	0	0	0	0	0	1	-360	360	-452.1490	-527.8280	452.4311	132.3998;
	232	233	0.0017	0.0485	0	0	0	0	0	0	1	-360	360	104.2912	87.7743	-104.0000	-79.4658;
	234	235	0.0002	0.0259	0.144	0	0	0	0	0	1	-360	360	10.2681	109.2329	-10.2425	-121.0272;
	234	237	0.0006	0.0272	0	0	0	0	0	0	1	-360	360	13.1125	-65.7329	-13.0875	66.8655;
	235	238	0.0002	0.0006	0.8	0	0	0	0	0	1	-360	360	-258.7575	-35.9728	258.8889	-45.2016;
	241	237	0.0005	0.0154	0	0	0	0	1	0	1	-360	360	575.4300	-35.4425	-573.9226	81.8696;
	240	281	0.0003	0.0043	0.009	0	0	0	0	0	1	-360	360	-33.0943	-30.2632	33.1000	29.4000;
	242	245	0.0082	0.0851	0	0	0	0	0	0	1	-360	360	68.2475	20.8695	-67.8239	-16.4738;
	242	247	0.0112	0.0723	0	0	0	0	0	0	1	-360	360	98.5087	20.9849	-97.3565	-13.5467;
	243	244	0.0127	0.0355	0	0	0	0	0	0	1	-360	360	57.1959	30.6223	-56.6718	-29.1576;
	243	245	0.0326	0.1804	0	0	0	0	0	0	1	-360	360	18.8041	18.5781	-18.5808	-17.3424;
	244	246	0.0195	0.0551	0	0	0	0	0	0	1	-360	360	56.6718	29.1576	-55.8672	-26.8840;
	245	246	0.0157	0.0732	0	0	0	0	0	0	1	-360	360	19.5694	3.8324	-19.5032	-3.5237;
	245	247	0.036	0.2119	0	0	0	0	0	0	1	-360	360	5.8353	-0.0161	-5.8223	0.0927;
	246	247	0.0268	0.1285	0	0	0	0	0	0	1	-360	360	-1.6296	-2.5922	1.6323	2.6052;
	247	248	0.0428	0.1215	0	0	0	0	0	0	1	-360	360	40.5466	-19.1511	-39.6302	21.7525;
	248	249	0.0351	0.1004	0	0	0	0	0	0	1	-360	360	6.5002	-1.4947	-6.4838	1.5415;
	249	250	0.0616	0.1857	0	0	0	0	0	0	1	-360	360	-22.5162	-15.5415	23.0000	17.0000;
	3	1	0	0.052	0	0	0	0	0.947	0	1	-360	360	25.0664	49.7231	-25.0664	-48.2687;
	3	2	0	0.052	0	0	0	0	0.956	0	1	-360	360	-39.7897	15.7249	39.7897	-14.8499;
	3	4	0	0.005	0	0	0	0	0.971	0	1	-360	360	712.5467	-68.7930	-712.5467	93.0920;
	7	5	0	0.039	0	0	0	0	0.948	0	1	-360	360	71.8821	78.2983	-71.8821	-74.2858;
	7	6	0	0.039	0	0	0	0	0.959	0	1	-360	360	-38.2617	12.7048	38.2617	-12.1140;
	10	11	0	0.089	0	0	0	0	1.046	0	1	-360	360	-21.5108	-32.7155	21.5108	34.1489;
	12	10	0	0.053	0	0	0	0	0.985	0	1	-360	360	131.4892	-10.7272	-131.4892	19.7241;
	15	17	0.0194	0.0311	0	0	0	0	0.9561	0	1	-360	360	241.7537	-80.2260	-231.0000	97.4651;
	16	15	0.001	0.038	0	0	0	0	0.971	0	1	-360	360	301.7724	85.9067	-300.9002	-52.7623;
	21	20	0	0.014	0	0	0	0	0.952	0	1	-360	360	521.2134	189.3125	-521.2134	-148.2834;
	24	23	0	0.064	0	0	0	0	0.943	0	1	-360	360	63.5566	28.3910	-63.5566	-25.6642;
	36	35	0	0.047	0	0	0	0	1.01	0	1	-360	360	113.5388	35.9720	-113.5388	-29.1869;
	45	44	0	0.02	0	0	0	0	1.008	0	1	-360	360	244.4304	30.1863	-244.4304	-18.3768;
	45	46	0	0.021	0	0	0	0	1	0	1	-360	360	-262.8168	-55.7391	262.8168	70.2613;
	62	61	0	0.059	0	0	0	0	0.975	0	1	-360	360	72.4062	92.3522	-72.4062	-84.8701;
	63	64	0	0.038	0	0	0	0	1.017	0	1	-360	360	-190.6900	-6.3235	190.6900	21.9030;
	73	74	0	0.0244	0	0	0	0	1	0	1	-360	360	-264.2023	-66.8846	264.2023	85.8477;
	81	88	0	0.02	0	0	0	0	1	0	1	-360	360	193.2860	101.1753	-193.2860	-92.2740;
	85	99	0	0.048	0	0	0	0	1	0	1	-360	360	92.6571	-2.5087	-92.6571	6.7410;
	86	102	0	0.048	0	0	0	0	1	0	1	-360	360	37.6598	-20.0710	-37.6598	20.9615;
	87	94	0	0.046	0	0	0	0	1.015	0	1	-360	360	60.9851	-32.3692	-60.9851	34.6651;
	114	207	0	0.149	0	0	0	0	0.967	0	1	-360	360	-11.0165	-5.6127	11.0165	5.8359;
	116	124	0.0052	0.0174	0	0	0	0	1.01	0	1	-360	360	62.6752	-68.2255	-62.2418	69.6759;
	121	115	0	0.028	0	0	0	0	1.05	0	1	-360	360	52.5364	-67.3141	-52.5364	69.6241;
	122	157	0.0005	0.0195	0	0	0	0	1	0	1	-360	360	-210.1609	-48.4159	210.4066	58.0000;
	130	131	0	0.018	0	0	0	0	1.0522	0	1	-360	360	-45.9200	-94.3246	45.9200	96.4363;
	130	150	0	0.014	0	0	0	0	1.0522	0	1	-360	360	-92.6376	-126.3263	92.6376	129.9884;
	132	170	0.001	0.0402	0	0	0	0	1.05	0	1	-360	360	115.6619	66.0244	-115.4681	-58.2344;
	141	174	0.0024	0.0603	0	0	0	0	0.975	0	1	-360	360	91.8438	26.6447	-91.6549	-21.8988;
	142	175	0.0024	0.0498	-0.087	0	0	0	1	0	1	-360	360	157.6506	89.3588	-156.9045	-65.2734;
	143	144	0	0.0833	0	0	0	0	1.035	0	1	-360	360	101.2571	-5.3790	-101.2571	13.8048;
	143	148	0.0013	0.0371	0	0	0	0	0.9565	0	1	-360	360	207.1312	97.1605	-206.5595	-80.8442;
	145	180	0.0005	0.0182	0	0	0	0	1	0	1	-360	360	282.1268	158.7561	-281.6112	-139.9882;
	151	170	0.001	0.0392	0	0	0	0	1.05	0	1	-360	360	161.6705	69.8344	-161.3319	-56.5593;
	153	183	0.0027	0.0639	0	0	0	0	1.073	0	1	-360	360	86.1257	0.1827	-85.9139	4.8290;
	155	156	0.0008	0.0256	0	0	0	0	1.05	0	1	-360	360	102.8437	21.9238	-102.7495	-18.9107;
	159	117	0	0.016	0	0	0	0	1.0506	0	1	-360	360	-487.6804	46.9277	487.6804	-3.3818;
	160	124	0.0012	0.0396	0	0	0	0	0.975	0	1	-360	360	43.3456	4.5723	-43.3239	-3.8569;
	163	137	0.0013	0.0384	-0.057	0	0	0	0.98	0	1	-360	360	221.6928	46.0539	-221.1054	-22.3633;
	164	155	0.0009	0.0231	-0.033	0	0	0	0.956	0	1	-360	360	232.0733	49.6762	-231.5962	-33.9732;
	182	139	0.0003	0.0131	0	0	0	0	1.05	0	1	-360	360	-86.0647	-125.3568	86.1348	128.4169;
	189	210	0	0.252	0	0	0	0	1.03	0	1	-360	360	-15.9311	-2.3349	15.9311	3.0242;
	193	196	0	0.237	0	0	0	0	1.03	0	1	-360	360	-22.5228	-1.3388	22.5228	2.6233;
	195	212	0.0008	0.0366	0	0	0	0	0.985	0	1	-360	360	84.8207	109.6998	-84.6816	-103.3368;
	200	248	0	0.22	0	0	0	0	1	0	1	-360	360	-4.1300	-9.0314	4.1300	9.2687;
	201	69	0	0.098	0	0	0	0	1.03	0	1	-360	360	-44.7556	-15.3604	44.7556	17.8140;
	202	211	0	0.128	0	0	0	0	1.01	0	1	-360	360	-26.7687	-15.4689	26.7687	16.7402;
	204	2040	0.02	0.204	-0.012	0	0	0	1.05	0	1	-360	360	-38.6106	-16.1691	39.0279	21.4988;
	209	198	0.026	0.211	0	0	0	0	1.03	0	1	-360	360	-46.4151	-10.3623	47.0331	15.3772;
	211	212	0.003	0.0122	0	0	0	0	1	0	1	-360	360	-126.8413	-62.0141	127.4372	64.4373;
	218	219	0.001	0.0354	-0.01	0	0	0	0.97	0	1	-360	360	-80.9725	-45.1852	81.0526	49.1189;
	223	224	0.0012	0.0195	-0.364	0	0	0	1	0	1	-360	360	-102.9298	6.5077	103.0594	31.8828;
	229	230	0.001	0.0332	0	0	0	0	1.02	0	1	-360	360	-343.8828	-5.4411	345.0000	42.5314;
	234	236	0.0005	0.016	0	0	0	0	1.07	0	1	-360	360	-597.8218	-230.5285	600.0000	300.2316;
	238	239	0.0005	0.016	0	0	0	0	1.02	0	1	-360	360	-548.4641	-19.2365	550.0000	68.3848;
	196	2040	0.0001	0.02	0	0	0	0	1	0	1	-360	360	39.0300	21.9213	-39.0279	-21.4988;
	119	1190	0.001	0.023	0	0	0	0	1.0223	0	1	-360	360	100.4164	31.6166	-100.3100	-29.1700;
	120	1200	0	0.023	0	0	0	0	0.9284	0	1	-360	360	-100.0000	36.6175	100.0000	-34.1700;
	7002	2	0.001	0.0146	0	0	0	0	1	0	1	-360	360	623.0000	93.4227	-619.4052	-40.9384;
	7003	3	0	0.01054	0	0	0	0	1	0	1	-360	360	1210.0000	420.0172	-1210.0000	-257.7582;
	7061	61	0	0.0238	0	0	0	0	1	0	1	-360	360	400.0000	120.6352	-400.0000	-80.2707;
	7062	62	0	0.03214	0	0	0	0	0.95	0	1	-360	360	400.0000	150.0051	-400.0000	-97.2476;
	7166	166	0	0.0154	0	0	0	0	1	0	1	-360	360	553.0000	136.9240	-553.0000	-88.3608;
	7024	24	0	0.0289	0	0	0	0	1	0	1	-360	360	410.0000	106.6695	-410.0000	-57.6827;
	7001	1	0	0.01953	0	0	0	0	1	0	1	-360	360	467.0000	139.6079	-467.0000	-97.5785;
	7130	130	0	0.0193	0	0	0	0	1	0	1	-360	360	1292.0000	324.3657	-1292.0000	-14.1454;
	7011	11	0	0.01923	0	0	0	0	1	0	1	-360	360	234.0000	51.8140	-234.0000	-41.0816;
	7023	23	0	0.023	0	0	0	0	1	0	1	-360	360	185.0000	6.3203	-185.0000	0.8185;
	7049	49	0	0.0124	0	0	0	0	1	0	1	-360	360	455.9465	38.8384	-455.9465	-15.3187;
	7139	139	0	0.0167	0	0	0	0	1	0	1	-360	360	700.0000	283.9266	-700.0000	-197.6085;
	7012	12	0	0.0312	0	0	0	0	1	0	1	-360	360	372.0000	200.2487	-372.0000	-149.8064;
	7017	17	0	0.01654	0	0	0	0	0.942	0	1	-360	360	330.0000	348.0480	-330.0000	-317.4651;
	7039	39	0	0.03159	0	0	0	0	0.965	0	1	-360	360	500.0000	153.3454	-500.0000	-80.3649;
	7057	57	0	0.05347	0	0	0	0	0.95	0	1	-360	360	165.0000	89.9066	-165.0000	-73.5682;
	7044	44	0	0.18181	0	0	0	0	0.942	0	1	-360	360	37.0000	41.5625	-37.0000	-36.7087;
	7055	55	0	0.19607	0	0	0	0	0.942	0	1	-360	360	45.0000	25.0135	-45.0000	-20.3711;
	7071	71	0	0.06896	0	0	0	0	0.9565	0	1	-360	360	116.0000	86.9302	-116.0000	-73.3847;
];

%%-----  OPF Data  -----%%
%% generator cost data
%	1	startup	shutdown	n	x1	y1	...	xn	yn
%	2	startup	shutdown	n	c(n-1)	...	c0
mpc.gencost = [
	2	0	0	3	0.01	40	0;
	2	0	0	3	0.01	40	0;
	2	0	0	3	0.01	40	0;
	2	0	0	3	0.01	40	0;
	2	0	0	3	0.01	40	0;
	2	0	0	3	0.0266666667	20	0;
	2	0	0	3	0.064516129	20	0;
	2	0	0	3	0.0344827586	20	0;
	2	0	0	3	0.147058824	20	0;
	2	0	0	3	0.0854700855	20	0;
	2	0	0	3	0.00518134715	20	0;
	2	0	0	3	0.0416666667	20	0;
	2	0	0	3	0.01	40	0;
	2	0	0	3	0.01	40	0;
	2	0	0	3	0.0355871886	20	0;
	2	0	0	3	0.0143678161	20	0;
	2	0	0	3	0.119047619	20	0;
	2	0	0	3	0.0460829493	20	0;
	2	0	0	3	0.0970873786	20	0;
	2	0	0	3	0.0268817204	20	0;
	2	0	0	3	0.0462962963	20	0;
	2	0	0	3	0.01	40	0;
	2	0	0	3	0.0487804878	20	0;
	2	0	0	3	0.01	40	0;
	2	0	0	3	0.0438596491	20	0;
	2	0	0	3	0.119047619	20	0;
	2	0	0	3	0.05	20	0;
	2	0	0	3	0.00833333333	20	0;
	2	0	0	3	0.00833333333	20	0;
	2	0	0	3	0.0210526316	20	0;
	2	0	0	3	0.00506842372	20	0;
	2	0	0	3	0.0235849057	20	0;
	2	0	0	3	0.0367647059	20	0;
	2	0	0	3	0.1	20	0;
	2	0	0	3	0.0222222222	20	0;
	2	0	0	3	0.04	20	0;
	2	0	0	3	0.0330033003	20	0;
	2	0	0	3	0.0289855072	20	0;
	2	0	0	3	0.0333333333	20	0;
	2	0	0	3	0.0166666667	20	0;
	2	0	0	3	0.04	20	0;
	2	0	0	3	0.0181818182	20	0;
	2	0	0	3	0.0173783084	20	0;
	2	0	0	3	0.0588235294	20	0;
	2	0	0	3	0.119047619	20	0;
	2	0	0	3	0.0214132762	20	0;
	2	0	0	3	0.0160513644	20	0;
	2	0	0	3	0.00826446281	20	0;
	2	0	0	3	0.0427350427	20	0;
	2	0	0	3	0.0268817204	20	0;
	2	0	0	3	0.0303030303	20	0;
	2	0	0	3	0.0540540541	20	0;
	2	0	0	3	0.0243902439	20	0;
	2	0	0	3	0.02	20	0;
	2	0	0	3	0.27027027	20	0;
	2	0	0	3	0.01	40	0;
	2	0	0	3	0.222222222	20	0;
	2	0	0	3	0.0606060606	20	0;
	2	0	0	3	0.025	20	0;
	2	0	0	3	0.025	20	0;
	2	0	0	3	0.0862068966	20	0;
	2	0	0	3	0.00773993808	20	0;
	2	0	0	3	0.0142857143	20	0;
	2	0	0	3	0.0180831826	20	0;
	2	0	0	3	0.01	40	0;
	2	0	0	3	0.01	40	0;
	2	0	0	3	0.01	40	0;
	2	0	0	3	0.2	20	0;
	2	0	0	3	1.25	20	0;
];
